Circuit: * C:\Users\Oguz\Desktop\Draft2.asc

Direct Newton iteration for .op point succeeded.

Date: Wed Mar 09 21:02:17 2022
Total elapsed time: 0.069 seconds.

tnom = 27
temp = 27
method = modified trap
totiter = 2563
traniter = 2560
tranpoints = 1281
accept = 1244
rejected = 37
matrix size = 3
fillins = 0
solver = Normal
Matrix Compiler1: off  [0.0]/0.0/0.0
Matrix Compiler2:      15 opcodes  0.0/[0.0]/0.0

