Circuit: * C:\Users\Oguz\Desktop\Draft1.asc

Direct Newton iteration for .op point succeeded.

Date: Wed Mar 09 23:51:13 2022
Total elapsed time: 0.132 seconds.

tnom = 27
temp = 27
method = modified trap
totiter = 2563
traniter = 2560
tranpoints = 1281
accept = 1244
rejected = 37
matrix size = 6
fillins = 0
solver = Normal
Matrix Compiler1: 200 bytes object code size  0.1/0.1/[0.1]
Matrix Compiler2: 394 bytes object code size  0.1/0.1/[0.1]

