Circuit: * C:\Users\Oguz\Desktop\202\LAB-4\LTSPICE\Draft1.asc

.OP point found by inspection.

Date: Tue Apr 12 01:41:05 2022
Total elapsed time: 0.116 seconds.

tnom = 27
temp = 27
method = modified trap
totiter = 2118
traniter = 2118
tranpoints = 1060
accept = 1058
rejected = 2
matrix size = 21
fillins = 0
solver = Normal
Matrix Compiler1: 770 bytes object code size  0.4/0.1/[0.1]
Matrix Compiler2: 1.36 KB object code size  0.2/0.3/[0.1]

