Circuit: * C:\Users\Oguz\Desktop\lab1.asc

.OP point found by inspection.

Date: Wed Mar 02 08:32:01 2022
Total elapsed time: 0.061 seconds.

tnom = 27
temp = 27
method = modified trap
totiter = 2082
traniter = 2082
tranpoints = 1042
accept = 1042
rejected = 0
matrix size = 4
fillins = 0
solver = Normal
Matrix Compiler1: 100 bytes object code size  0.1/0.1/[0.1]
Matrix Compiler2: 248 bytes object code size  0.1/0.3/[0.1]

